/*--------------------------------*- C++ -*----------------------------------*\
  =========                 |
  \\      /  F ield         | OpenFOAM: The Open Source CFD Toolbox
   \\    /   O peration     | Website:  https://openfoam.org
    \\  /    A nd           | Version:  7
     \\/     M anipulation  |
\*---------------------------------------------------------------------------*/
FoamFile
{
    version     2.0;
    format      ascii;
    class       polyBoundaryMesh;
    location    "constant/polyMesh";
    object      boundary;
}
// * * * * * * * * * * * * * * * * * * * * * * * * * * * * * * * * * * * * * //

4
(
    frontAndBack
    {
        type            empty;
        physicalType    patch;
        nFaces          130728;
        startFace       97653;
    }
    simetry
    {
        type            symmetry;
        physicalType    patch;
        nFaces          414;
        startFace       228381;
    }
    outlet
    {
        type            patch;
        physicalType    patch;
        nFaces          354;
        startFace       228795;
    }
    inlet
    {
        type            patch;
        physicalType    patch;
        nFaces          18;
        startFace       229149;
    }
)

// ************************************************************************* //
